Version 4
SHEET 1 1140 680
WIRE 832 272 832 256
WIRE 832 304 832 272
WIRE 752 400 752 352
WIRE 656 416 656 352
WIRE 720 416 656 416
WIRE 992 432 784 432
WIRE 720 448 208 448
FLAG 656 272 0
FLAG 752 464 0
FLAG 832 384 0
FLAG 832 272 vss
FLAG 752 352 vss
FLAG 992 432 pwm_out
IOPIN 992 432 Out
FLAG 208 448 data
IOPIN 208 448 In
SYMBOL voltage 656 368 R180
WINDOW 0 24 96 Left 2
WINDOW 3 24 16 Left 2
SYMATTR InstName V1
SYMATTR Value PULSE(0 3.3 0 512n 10p 0 512n)
SYMBOL LT1721 752 368 R0
SYMATTR InstName U1
SYMBOL Voltage 832 288 R0
SYMATTR InstName V2
SYMATTR Value 3.3
RECTANGLE Normal 220 180 980 488
