Version 4
SHEET 1 880 680
WIRE 256 320 192 320
WIRE 304 320 256 320
WIRE 544 320 480 320
WIRE 544 400 192 400
WIRE 192 416 192 400
FLAG 192 416 0
FLAG 256 320 n
SYMBOL Voltage 192 304 R0
SYMATTR InstName V2
SYMATTR Value SINE(0 5 10)
SYMBOL MEMRISTOR2 384 320 R0
SYMATTR InstName U1
SYMBOL Res 528 304 R0
SYMATTR InstName R1
SYMATTR Value 1k
TEXT 232 208 Left 2 !.tran 100
